LTspice 24.0.12 for Windows
Circuit: * C:\Users\Lenovo\OneDrive\Documentos\LTspice\Transmisor Morse.asc
Start Time: Sat Jan 17 12:28:45 2026
Warning: Multiple definitions of model "2scr375p" Type: BJT
Warning: Multiple definitions of model "bc857b" Type: BJT
Warning: Multiple definitions of model "bc847c" Type: BJT
Warning: Multiple definitions of model "bc847b" Type: BJT
solver = Normal
Maximum thread count: 8
tnom = 27
temp = 27
method = modified trap
WARNING: Node N007 is floating.

Per .tran options, skipping operating point for transient analysis.
Total elapsed time: 1.855 seconds.

